903
Fe24 O32
 O  -11.7705   -3.2371    3.2370
 O  -11.7704   -1.0296    1.0295
 O  -11.7704    1.0295   -1.0296
 O  -11.7704    3.2370   -3.2370
Fe  -11.7333   -5.3333    3.2000
Fe  -11.7333   -3.2000   -3.2000
Fe  -11.7333   -3.2000    5.3333
Fe  -11.7333   -1.0666   -1.0666
Fe  -11.7333    1.0666    1.0666
Fe  -11.7333    3.2000   -5.3333
Fe  -11.7333    3.2000    3.2000
Fe  -11.7333    5.3333   -3.2000
 O  -11.6962   -5.3704    1.1037
 O  -11.6962   -3.1629   -1.1037
 O  -11.6962   -1.1037   -3.1629
 O  -11.6962   -1.1037    5.3703
 O  -11.6962    1.1037   -5.3704
 O  -11.6962    1.1037    3.1628
 O  -11.6962    3.1628    1.1037
 O  -11.6962    5.3703   -1.1037
Fe  -10.6666   -6.4000   -2.1333
Fe  -10.6666   -2.1333   -6.4000
Fe  -10.6666   -2.1333    2.1333
Fe  -10.6666    2.1333   -2.1333
Fe  -10.6666    2.1333    6.4000
Fe  -10.6666    6.4000    2.1333
 O   -9.6371   -7.4296    1.1037
 O   -9.6371   -5.3704   -5.3704
 O   -9.6371   -5.3704    3.1628
 O   -9.6371   -3.1629   -3.1629
 O   -9.6371   -3.1629    5.3703
 O   -9.6371   -1.1037   -1.1037
 O   -9.6371   -1.1037    7.4295
 O   -9.6371    1.1037   -7.4296
 O   -9.6371    1.1037    1.1037
 O   -9.6371    3.1628   -5.3704
 O   -9.6371    3.1628    3.1628
 O   -9.6371    5.3703   -3.1629
 O   -9.6371    5.3703    5.3703
 O   -9.6371    7.4295   -1.1037
Fe   -9.6000   -7.4666   -5.3333
Fe   -9.6000   -7.4666    3.2000
Fe   -9.6000   -5.3333   -7.4666
Fe   -9.6000   -5.3333    1.0666
Fe   -9.6000   -3.2000   -1.0666
Fe   -9.6000   -3.2000    7.4666
Fe   -9.6000   -1.0666   -3.2000
Fe   -9.6000   -1.0666    5.3333
Fe   -9.6000    1.0666   -5.3333
Fe   -9.6000    1.0666    3.2000
Fe   -9.6000    3.2000   -7.4666
Fe   -9.6000    3.2000    1.0666
Fe   -9.6000    5.3333   -1.0666
Fe   -9.6000    5.3333    7.4666
Fe   -9.6000    7.4666   -3.2000
Fe   -9.6000    7.4666    5.3333
 O   -9.5628   -7.5038   -3.2370
 O   -9.5628   -7.5038    5.2961
 O   -9.5628   -5.2963   -1.0296
 O   -9.5628   -5.2963    7.5037
 O   -9.5628   -3.2370   -7.5038
 O   -9.5628   -3.2370    1.0295
 O   -9.5628   -1.0296   -5.2963
 O   -9.5628   -1.0296    3.2370
 O   -9.5628    1.0295   -3.2370
 O   -9.5628    1.0295    5.2961
 O   -9.5628    3.2370   -1.0296
 O   -9.5628    3.2370    7.5037
 O   -9.5628    5.2961   -7.5038
 O   -9.5628    5.2961    1.0295
 O   -9.5628    7.5037   -5.2963
 O   -9.5628    7.5037    3.2370
Fe   -8.5333   -8.5333    0.0000
Fe   -8.5333   -4.2666   -4.2666
Fe   -8.5333   -4.2666    4.2666
Fe   -8.5333    0.0000   -8.5333
Fe   -8.5333    0.0000    0.0000
Fe   -8.5333    0.0000    8.5333
Fe   -8.5333    4.2666   -4.2666
Fe   -8.5333    4.2666    4.2666
Fe   -8.5333    8.5333    0.0000
 O   -7.5038   -9.5628   -3.2370
 O   -7.5038   -9.5628    5.2961
 O   -7.5038   -7.5038   -5.2963
 O   -7.5038   -7.5038    3.2370
 O   -7.5038   -5.2963   -7.5038
 O   -7.5038   -5.2963    1.0295
 O   -7.5038   -5.2963    9.5628
 O   -7.5038   -3.2370   -9.5628
 O   -7.5038   -3.2370   -1.0296
 O   -7.5038   -3.2370    7.5037
 O   -7.5038   -1.0296   -3.2370
 O   -7.5038   -1.0296    5.2961
 O   -7.5038    1.0295   -5.2963
 O   -7.5038    1.0295    3.2370
 O   -7.5038    3.2370   -7.5038
 O   -7.5038    3.2370    1.0295
 O   -7.5038    3.2370    9.5628
 O   -7.5038    5.2961   -9.5628
 O   -7.5038    5.2961   -1.0296
 O   -7.5038    5.2961    7.5037
 O   -7.5038    7.5037   -3.2370
 O   -7.5038    7.5037    5.2961
 O   -7.5038    9.5628   -5.2963
 O   -7.5038    9.5628    3.2370
Fe   -7.4666   -9.6000   -5.3333
Fe   -7.4666   -9.6000    3.2000
Fe   -7.4666   -7.4666   -3.2000
Fe   -7.4666   -7.4666    5.3333
Fe   -7.4666   -5.3333   -9.6000
Fe   -7.4666   -5.3333   -1.0666
Fe   -7.4666   -5.3333    7.4666
Fe   -7.4666   -3.2000   -7.4666
Fe   -7.4666   -3.2000    1.0666
Fe   -7.4666   -3.2000    9.6000
Fe   -7.4666   -1.0666   -5.3333
Fe   -7.4666   -1.0666    3.2000
Fe   -7.4666    1.0666   -3.2000
Fe   -7.4666    1.0666    5.3333
Fe   -7.4666    3.2000   -9.6000
Fe   -7.4666    3.2000   -1.0666
Fe   -7.4666    3.2000    7.4666
Fe   -7.4666    5.3333   -7.4666
Fe   -7.4666    5.3333    1.0666
Fe   -7.4666    5.3333    9.6000
Fe   -7.4666    7.4666   -5.3333
Fe   -7.4666    7.4666    3.2000
Fe   -7.4666    9.6000   -3.2000
Fe   -7.4666    9.6000    5.3333
 O   -7.4296   -9.6371    1.1037
 O   -7.4296   -7.4296   -1.1037
 O   -7.4296   -7.4296    7.4295
 O   -7.4296   -5.3704   -3.1629
 O   -7.4296   -5.3704    5.3703
 O   -7.4296   -3.1629   -5.3704
 O   -7.4296   -3.1629    3.1628
 O   -7.4296   -1.1037   -7.4296
 O   -7.4296   -1.1037    1.1037
 O   -7.4296   -1.1037    9.6370
 O   -7.4296    1.1037   -9.6371
 O   -7.4296    1.1037   -1.1037
 O   -7.4296    1.1037    7.4295
 O   -7.4296    3.1628   -3.1629
 O   -7.4296    3.1628    5.3703
 O   -7.4296    5.3703   -5.3704
 O   -7.4296    5.3703    3.1628
 O   -7.4296    7.4295   -7.4296
 O   -7.4296    7.4295    1.1037
 O   -7.4296    9.6370   -1.1037
Fe   -6.4000  -10.6666   -2.1333
Fe   -6.4000   -6.4000   -6.4000
Fe   -6.4000   -6.4000    2.1333
Fe   -6.4000   -2.1333  -10.6666
Fe   -6.4000   -2.1333   -2.1333
Fe   -6.4000   -2.1333    6.4000
Fe   -6.4000    2.1333   -6.4000
Fe   -6.4000    2.1333    2.1333
Fe   -6.4000    2.1333   10.6666
Fe   -6.4000    6.4000   -2.1333
Fe   -6.4000    6.4000    6.4000
Fe   -6.4000   10.6666    2.1333
 O   -5.3704  -11.6962    1.1037
 O   -5.3704   -9.6371   -5.3704
 O   -5.3704   -9.6371    3.1628
 O   -5.3704   -7.4296   -3.1629
 O   -5.3704   -7.4296    5.3703
 O   -5.3704   -5.3704   -9.6371
 O   -5.3704   -5.3704   -1.1037
 O   -5.3704   -5.3704    7.4295
 O   -5.3704   -3.1629   -7.4296
 O   -5.3704   -3.1629    1.1037
 O   -5.3704   -3.1629    9.6370
 O   -5.3704   -1.1037   -5.3704
 O   -5.3704   -1.1037    3.1628
 O   -5.3704   -1.1037   11.6962
 O   -5.3704    1.1037  -11.6962
 O   -5.3704    1.1037   -3.1629
 O   -5.3704    1.1037    5.3703
 O   -5.3704    3.1628   -9.6371
 O   -5.3704    3.1628   -1.1037
 O   -5.3704    3.1628    7.4295
 O   -5.3704    5.3703   -7.4296
 O   -5.3704    5.3703    1.1037
 O   -5.3704    5.3703    9.6370
 O   -5.3704    7.4295   -5.3704
 O   -5.3704    7.4295    3.1628
 O   -5.3704    9.6370   -3.1629
 O   -5.3704    9.6370    5.3703
 O   -5.3704   11.6962   -1.1037
Fe   -5.3333  -11.7333    3.2000
Fe   -5.3333   -9.6000   -7.4666
Fe   -5.3333   -9.6000    1.0666
Fe   -5.3333   -7.4666   -9.6000
Fe   -5.3333   -7.4666   -1.0666
Fe   -5.3333   -7.4666    7.4666
Fe   -5.3333   -5.3333   -3.2000
Fe   -5.3333   -5.3333    5.3333
Fe   -5.3333   -3.2000   -5.3333
Fe   -5.3333   -3.2000    3.2000
Fe   -5.3333   -3.2000   11.7333
Fe   -5.3333   -1.0666   -7.4666
Fe   -5.3333   -1.0666    1.0666
Fe   -5.3333   -1.0666    9.6000
Fe   -5.3333    1.0666   -9.6000
Fe   -5.3333    1.0666   -1.0666
Fe   -5.3333    1.0666    7.4666
Fe   -5.3333    3.2000  -11.7333
Fe   -5.3333    3.2000   -3.2000
Fe   -5.3333    3.2000    5.3333
Fe   -5.3333    5.3333   -5.3333
Fe   -5.3333    5.3333    3.2000
Fe   -5.3333    7.4666   -7.4666
Fe   -5.3333    7.4666    1.0666
Fe   -5.3333    7.4666    9.6000
Fe   -5.3333    9.6000   -1.0666
Fe   -5.3333    9.6000    7.4666
Fe   -5.3333   11.7333   -3.2000
 O   -5.2963   -9.5628   -1.0296
 O   -5.2963   -9.5628    7.5037
 O   -5.2963   -7.5038   -7.5038
 O   -5.2963   -7.5038    1.0295
 O   -5.2963   -7.5038    9.5628
 O   -5.2963   -5.2963   -5.2963
 O   -5.2963   -5.2963    3.2370
 O   -5.2963   -3.2370   -3.2370
 O   -5.2963   -3.2370    5.2961
 O   -5.2963   -1.0296   -9.5628
 O   -5.2963   -1.0296   -1.0296
 O   -5.2963   -1.0296    7.5037
 O   -5.2963    1.0295   -7.5038
 O   -5.2963    1.0295    1.0295
 O   -5.2963    1.0295    9.5628
 O   -5.2963    3.2370   -5.2963
 O   -5.2963    3.2370    3.2370
 O   -5.2963    5.2961   -3.2370
 O   -5.2963    5.2961    5.2961
 O   -5.2963    7.5037   -9.5628
 O   -5.2963    7.5037   -1.0296
 O   -5.2963    7.5037    7.5037
 O   -5.2963    9.5628   -7.5038
 O   -5.2963    9.5628    1.0295
Fe   -4.2666   -8.5333   -4.2666
Fe   -4.2666   -8.5333    4.2666
Fe   -4.2666   -4.2666   -8.5333
Fe   -4.2666   -4.2666    0.0000
Fe   -4.2666   -4.2666    8.5333
Fe   -4.2666    0.0000   -4.2666
Fe   -4.2666    0.0000    4.2666
Fe   -4.2666    4.2666   -8.5333
Fe   -4.2666    4.2666    0.0000
Fe   -4.2666    4.2666    8.5333
Fe   -4.2666    8.5333   -4.2666
Fe   -4.2666    8.5333    4.2666
 O   -3.2370  -11.7704    3.2370
 O   -3.2370   -9.5628   -7.5038
 O   -3.2370   -9.5628    1.0295
 O   -3.2370   -7.5038   -9.5628
 O   -3.2370   -7.5038   -1.0296
 O   -3.2370   -7.5038    7.5037
 O   -3.2370   -5.2963   -3.2370
 O   -3.2370   -5.2963    5.2961
 O   -3.2370   -3.2370   -5.2963
 O   -3.2370   -3.2370    3.2370
 O   -3.2370   -3.2370   11.7703
 O   -3.2370   -1.0296   -7.5038
 O   -3.2370   -1.0296    1.0295
 O   -3.2370   -1.0296    9.5628
 O   -3.2370    1.0295   -9.5628
 O   -3.2370    1.0295   -1.0296
 O   -3.2370    1.0295    7.5037
 O   -3.2370    3.2370  -11.7704
 O   -3.2370    3.2370   -3.2370
 O   -3.2370    3.2370    5.2961
 O   -3.2370    5.2961   -5.2963
 O   -3.2370    5.2961    3.2370
 O   -3.2370    7.5037   -7.5038
 O   -3.2370    7.5037    1.0295
 O   -3.2370    7.5037    9.5628
 O   -3.2370    9.5628   -1.0296
 O   -3.2370    9.5628    7.5037
 O   -3.2370   11.7703   -3.2370
Fe   -3.2000  -11.7333   -3.2000
Fe   -3.2000  -11.7333    5.3333
Fe   -3.2000   -9.6000   -1.0666
Fe   -3.2000   -9.6000    7.4666
Fe   -3.2000   -7.4666   -7.4666
Fe   -3.2000   -7.4666    1.0666
Fe   -3.2000   -7.4666    9.6000
Fe   -3.2000   -5.3333   -5.3333
Fe   -3.2000   -5.3333    3.2000
Fe   -3.2000   -5.3333   11.7333
Fe   -3.2000   -3.2000  -11.7333
Fe   -3.2000   -3.2000   -3.2000
Fe   -3.2000   -3.2000    5.3333
Fe   -3.2000   -1.0666   -9.6000
Fe   -3.2000   -1.0666   -1.0666
Fe   -3.2000   -1.0666    7.4666
Fe   -3.2000    1.0666   -7.4666
Fe   -3.2000    1.0666    1.0666
Fe   -3.2000    1.0666    9.6000
Fe   -3.2000    3.2000   -5.3333
Fe   -3.2000    3.2000    3.2000
Fe   -3.2000    3.2000   11.7333
Fe   -3.2000    5.3333  -11.7333
Fe   -3.2000    5.3333   -3.2000
Fe   -3.2000    5.3333    5.3333
Fe   -3.2000    7.4666   -9.6000
Fe   -3.2000    7.4666   -1.0666
Fe   -3.2000    7.4666    7.4666
Fe   -3.2000    9.6000   -7.4666
Fe   -3.2000    9.6000    1.0666
Fe   -3.2000   11.7333   -5.3333
Fe   -3.2000   11.7333    3.2000
 O   -3.1629  -11.6962   -1.1037
 O   -3.1629   -9.6371   -3.1629
 O   -3.1629   -9.6371    5.3703
 O   -3.1629   -7.4296   -5.3704
 O   -3.1629   -7.4296    3.1628
 O   -3.1629   -5.3704   -7.4296
 O   -3.1629   -5.3704    1.1037
 O   -3.1629   -5.3704    9.6370
 O   -3.1629   -3.1629   -9.6371
 O   -3.1629   -3.1629   -1.1037
 O   -3.1629   -3.1629    7.4295
 O   -3.1629   -1.1037  -11.6962
 O   -3.1629   -1.1037   -3.1629
 O   -3.1629   -1.1037    5.3703
 O   -3.1629    1.1037   -5.3704
 O   -3.1629    1.1037    3.1628
 O   -3.1629    1.1037   11.6962
 O   -3.1629    3.1628   -7.4296
 O   -3.1629    3.1628    1.1037
 O   -3.1629    3.1628    9.6370
 O   -3.1629    5.3703   -9.6371
 O   -3.1629    5.3703   -1.1037
 O   -3.1629    5.3703    7.4295
 O   -3.1629    7.4295   -3.1629
 O   -3.1629    7.4295    5.3703
 O   -3.1629    9.6370   -5.3704
 O   -3.1629    9.6370    3.1628
 O   -3.1629   11.6962    1.1037
Fe   -2.1333  -10.6666   -6.4000
Fe   -2.1333  -10.6666    2.1333
Fe   -2.1333   -6.4000  -10.6666
Fe   -2.1333   -6.4000   -2.1333
Fe   -2.1333   -6.4000    6.4000
Fe   -2.1333   -2.1333   -6.4000
Fe   -2.1333   -2.1333    2.1333
Fe   -2.1333   -2.1333   10.6666
Fe   -2.1333    2.1333  -10.6666
Fe   -2.1333    2.1333   -2.1333
Fe   -2.1333    2.1333    6.4000
Fe   -2.1333    6.4000   -6.4000
Fe   -2.1333    6.4000    2.1333
Fe   -2.1333    6.4000   10.6666
Fe   -2.1333   10.6666   -2.1333
Fe   -2.1333   10.6666    6.4000
 O   -1.1037  -11.6962   -3.1629
 O   -1.1037  -11.6962    5.3703
 O   -1.1037   -9.6371   -1.1037
 O   -1.1037   -9.6371    7.4295
 O   -1.1037   -7.4296   -7.4296
 O   -1.1037   -7.4296    1.1037
 O   -1.1037   -7.4296    9.6370
 O   -1.1037   -5.3704   -5.3704
 O   -1.1037   -5.3704    3.1628
 O   -1.1037   -5.3704   11.6962
 O   -1.1037   -3.1629  -11.6962
 O   -1.1037   -3.1629   -3.1629
 O   -1.1037   -3.1629    5.3703
 O   -1.1037   -1.1037   -9.6371
 O   -1.1037   -1.1037   -1.1037
 O   -1.1037   -1.1037    7.4295
 O   -1.1037    1.1037   -7.4296
 O   -1.1037    1.1037    1.1037
 O   -1.1037    1.1037    9.6370
 O   -1.1037    3.1628   -5.3704
 O   -1.1037    3.1628    3.1628
 O   -1.1037    3.1628   11.6962
 O   -1.1037    5.3703  -11.6962
 O   -1.1037    5.3703   -3.1629
 O   -1.1037    5.3703    5.3703
 O   -1.1037    7.4295   -9.6371
 O   -1.1037    7.4295   -1.1037
 O   -1.1037    7.4295    7.4295
 O   -1.1037    9.6370   -7.4296
 O   -1.1037    9.6370    1.1037
 O   -1.1037   11.6962   -5.3704
 O   -1.1037   11.6962    3.1628
Fe   -1.0666  -11.7333   -1.0666
Fe   -1.0666   -9.6000   -3.2000
Fe   -1.0666   -9.6000    5.3333
Fe   -1.0666   -7.4666   -5.3333
Fe   -1.0666   -7.4666    3.2000
Fe   -1.0666   -5.3333   -7.4666
Fe   -1.0666   -5.3333    1.0666
Fe   -1.0666   -5.3333    9.6000
Fe   -1.0666   -3.2000   -9.6000
Fe   -1.0666   -3.2000   -1.0666
Fe   -1.0666   -3.2000    7.4666
Fe   -1.0666   -1.0666  -11.7333
Fe   -1.0666   -1.0666   -3.2000
Fe   -1.0666   -1.0666    5.3333
Fe   -1.0666    1.0666   -5.3333
Fe   -1.0666    1.0666    3.2000
Fe   -1.0666    1.0666   11.7333
Fe   -1.0666    3.2000   -7.4666
Fe   -1.0666    3.2000    1.0666
Fe   -1.0666    3.2000    9.6000
Fe   -1.0666    5.3333   -9.6000
Fe   -1.0666    5.3333   -1.0666
Fe   -1.0666    5.3333    7.4666
Fe   -1.0666    7.4666   -3.2000
Fe   -1.0666    7.4666    5.3333
Fe   -1.0666    9.6000   -5.3333
Fe   -1.0666    9.6000    3.2000
Fe   -1.0666   11.7333    1.0666
 O   -1.0296  -11.7704    1.0295
 O   -1.0296   -9.5628   -5.2963
 O   -1.0296   -9.5628    3.2370
 O   -1.0296   -7.5038   -3.2370
 O   -1.0296   -7.5038    5.2961
 O   -1.0296   -5.2963   -9.5628
 O   -1.0296   -5.2963   -1.0296
 O   -1.0296   -5.2963    7.5037
 O   -1.0296   -3.2370   -7.5038
 O   -1.0296   -3.2370    1.0295
 O   -1.0296   -3.2370    9.5628
 O   -1.0296   -1.0296   -5.2963
 O   -1.0296   -1.0296    3.2370
 O   -1.0296   -1.0296   11.7703
 O   -1.0296    1.0295  -11.7704
 O   -1.0296    1.0295   -3.2370
 O   -1.0296    1.0295    5.2961
 O   -1.0296    3.2370   -9.5628
 O   -1.0296    3.2370   -1.0296
 O   -1.0296    3.2370    7.5037
 O   -1.0296    5.2961   -7.5038
 O   -1.0296    5.2961    1.0295
 O   -1.0296    5.2961    9.5628
 O   -1.0296    7.5037   -5.2963
 O   -1.0296    7.5037    3.2370
 O   -1.0296    9.5628   -3.2370
 O   -1.0296    9.5628    5.2961
 O   -1.0296   11.7703   -1.0296
Fe    0.0000   -8.5333   -8.5333
Fe    0.0000   -8.5333    0.0000
Fe    0.0000   -8.5333    8.5333
Fe    0.0000   -4.2666   -4.2666
Fe    0.0000   -4.2666    4.2666
Fe    0.0000    0.0000   -8.5333
Fe    0.0000    0.0000    0.0000
Fe    0.0000    0.0000    8.5333
Fe    0.0000    4.2666   -4.2666
Fe    0.0000    4.2666    4.2666
Fe    0.0000    8.5333   -8.5333
Fe    0.0000    8.5333    0.0000
Fe    0.0000    8.5333    8.5333
 O    1.0295  -11.7704   -1.0296
 O    1.0295   -9.5628   -3.2370
 O    1.0295   -9.5628    5.2961
 O    1.0295   -7.5038   -5.2963
 O    1.0295   -7.5038    3.2370
 O    1.0295   -5.2963   -7.5038
 O    1.0295   -5.2963    1.0295
 O    1.0295   -5.2963    9.5628
 O    1.0295   -3.2370   -9.5628
 O    1.0295   -3.2370   -1.0296
 O    1.0295   -3.2370    7.5037
 O    1.0295   -1.0296  -11.7704
 O    1.0295   -1.0296   -3.2370
 O    1.0295   -1.0296    5.2961
 O    1.0295    1.0295   -5.2963
 O    1.0295    1.0295    3.2370
 O    1.0295    1.0295   11.7703
 O    1.0295    3.2370   -7.5038
 O    1.0295    3.2370    1.0295
 O    1.0295    3.2370    9.5628
 O    1.0295    5.2961   -9.5628
 O    1.0295    5.2961   -1.0296
 O    1.0295    5.2961    7.5037
 O    1.0295    7.5037   -3.2370
 O    1.0295    7.5037    5.2961
 O    1.0295    9.5628   -5.2963
 O    1.0295    9.5628    3.2370
 O    1.0295   11.7703    1.0295
Fe    1.0666  -11.7333    1.0666
Fe    1.0666   -9.6000   -5.3333
Fe    1.0666   -9.6000    3.2000
Fe    1.0666   -7.4666   -3.2000
Fe    1.0666   -7.4666    5.3333
Fe    1.0666   -5.3333   -9.6000
Fe    1.0666   -5.3333   -1.0666
Fe    1.0666   -5.3333    7.4666
Fe    1.0666   -3.2000   -7.4666
Fe    1.0666   -3.2000    1.0666
Fe    1.0666   -3.2000    9.6000
Fe    1.0666   -1.0666   -5.3333
Fe    1.0666   -1.0666    3.2000
Fe    1.0666   -1.0666   11.7333
Fe    1.0666    1.0666  -11.7333
Fe    1.0666    1.0666   -3.2000
Fe    1.0666    1.0666    5.3333
Fe    1.0666    3.2000   -9.6000
Fe    1.0666    3.2000   -1.0666
Fe    1.0666    3.2000    7.4666
Fe    1.0666    5.3333   -7.4666
Fe    1.0666    5.3333    1.0666
Fe    1.0666    5.3333    9.6000
Fe    1.0666    7.4666   -5.3333
Fe    1.0666    7.4666    3.2000
Fe    1.0666    9.6000   -3.2000
Fe    1.0666    9.6000    5.3333
Fe    1.0666   11.7333   -1.0666
 O    1.1037  -11.6962   -5.3704
 O    1.1037  -11.6962    3.1628
 O    1.1037   -9.6371   -7.4296
 O    1.1037   -9.6371    1.1037
 O    1.1037   -7.4296   -9.6371
 O    1.1037   -7.4296   -1.1037
 O    1.1037   -7.4296    7.4295
 O    1.1037   -5.3704  -11.6962
 O    1.1037   -5.3704   -3.1629
 O    1.1037   -5.3704    5.3703
 O    1.1037   -3.1629   -5.3704
 O    1.1037   -3.1629    3.1628
 O    1.1037   -3.1629   11.6962
 O    1.1037   -1.1037   -7.4296
 O    1.1037   -1.1037    1.1037
 O    1.1037   -1.1037    9.6370
 O    1.1037    1.1037   -9.6371
 O    1.1037    1.1037   -1.1037
 O    1.1037    1.1037    7.4295
 O    1.1037    3.1628  -11.6962
 O    1.1037    3.1628   -3.1629
 O    1.1037    3.1628    5.3703
 O    1.1037    5.3703   -5.3704
 O    1.1037    5.3703    3.1628
 O    1.1037    5.3703   11.6962
 O    1.1037    7.4295   -7.4296
 O    1.1037    7.4295    1.1037
 O    1.1037    7.4295    9.6370
 O    1.1037    9.6370   -1.1037
 O    1.1037    9.6370    7.4295
 O    1.1037   11.6962   -3.1629
 O    1.1037   11.6962    5.3703
Fe    2.1333  -10.6666   -2.1333
Fe    2.1333  -10.6666    6.4000
Fe    2.1333   -6.4000   -6.4000
Fe    2.1333   -6.4000    2.1333
Fe    2.1333   -6.4000   10.6666
Fe    2.1333   -2.1333  -10.6666
Fe    2.1333   -2.1333   -2.1333
Fe    2.1333   -2.1333    6.4000
Fe    2.1333    2.1333   -6.4000
Fe    2.1333    2.1333    2.1333
Fe    2.1333    2.1333   10.6666
Fe    2.1333    6.4000  -10.6666
Fe    2.1333    6.4000   -2.1333
Fe    2.1333    6.4000    6.4000
Fe    2.1333   10.6666   -6.4000
Fe    2.1333   10.6666    2.1333
 O    3.1628  -11.6962    1.1037
 O    3.1628   -9.6371   -5.3704
 O    3.1628   -9.6371    3.1628
 O    3.1628   -7.4296   -3.1629
 O    3.1628   -7.4296    5.3703
 O    3.1628   -5.3704   -9.6371
 O    3.1628   -5.3704   -1.1037
 O    3.1628   -5.3704    7.4295
 O    3.1628   -3.1629   -7.4296
 O    3.1628   -3.1629    1.1037
 O    3.1628   -3.1629    9.6370
 O    3.1628   -1.1037   -5.3704
 O    3.1628   -1.1037    3.1628
 O    3.1628   -1.1037   11.6962
 O    3.1628    1.1037  -11.6962
 O    3.1628    1.1037   -3.1629
 O    3.1628    1.1037    5.3703
 O    3.1628    3.1628   -9.6371
 O    3.1628    3.1628   -1.1037
 O    3.1628    3.1628    7.4295
 O    3.1628    5.3703   -7.4296
 O    3.1628    5.3703    1.1037
 O    3.1628    5.3703    9.6370
 O    3.1628    7.4295   -5.3704
 O    3.1628    7.4295    3.1628
 O    3.1628    9.6370   -3.1629
 O    3.1628    9.6370    5.3703
 O    3.1628   11.6962   -1.1037
Fe    3.2000  -11.7333   -5.3333
Fe    3.2000  -11.7333    3.2000
Fe    3.2000   -9.6000   -7.4666
Fe    3.2000   -9.6000    1.0666
Fe    3.2000   -7.4666   -9.6000
Fe    3.2000   -7.4666   -1.0666
Fe    3.2000   -7.4666    7.4666
Fe    3.2000   -5.3333  -11.7333
Fe    3.2000   -5.3333   -3.2000
Fe    3.2000   -5.3333    5.3333
Fe    3.2000   -3.2000   -5.3333
Fe    3.2000   -3.2000    3.2000
Fe    3.2000   -3.2000   11.7333
Fe    3.2000   -1.0666   -7.4666
Fe    3.2000   -1.0666    1.0666
Fe    3.2000   -1.0666    9.6000
Fe    3.2000    1.0666   -9.6000
Fe    3.2000    1.0666   -1.0666
Fe    3.2000    1.0666    7.4666
Fe    3.2000    3.2000  -11.7333
Fe    3.2000    3.2000   -3.2000
Fe    3.2000    3.2000    5.3333
Fe    3.2000    5.3333   -5.3333
Fe    3.2000    5.3333    3.2000
Fe    3.2000    5.3333   11.7333
Fe    3.2000    7.4666   -7.4666
Fe    3.2000    7.4666    1.0666
Fe    3.2000    7.4666    9.6000
Fe    3.2000    9.6000   -1.0666
Fe    3.2000    9.6000    7.4666
Fe    3.2000   11.7333   -3.2000
Fe    3.2000   11.7333    5.3333
 O    3.2370  -11.7704   -3.2370
 O    3.2370   -9.5628   -1.0296
 O    3.2370   -9.5628    7.5037
 O    3.2370   -7.5038   -7.5038
 O    3.2370   -7.5038    1.0295
 O    3.2370   -7.5038    9.5628
 O    3.2370   -5.2963   -5.2963
 O    3.2370   -5.2963    3.2370
 O    3.2370   -3.2370  -11.7704
 O    3.2370   -3.2370   -3.2370
 O    3.2370   -3.2370    5.2961
 O    3.2370   -1.0296   -9.5628
 O    3.2370   -1.0296   -1.0296
 O    3.2370   -1.0296    7.5037
 O    3.2370    1.0295   -7.5038
 O    3.2370    1.0295    1.0295
 O    3.2370    1.0295    9.5628
 O    3.2370    3.2370   -5.2963
 O    3.2370    3.2370    3.2370
 O    3.2370    3.2370   11.7703
 O    3.2370    5.2961   -3.2370
 O    3.2370    5.2961    5.2961
 O    3.2370    7.5037   -9.5628
 O    3.2370    7.5037   -1.0296
 O    3.2370    7.5037    7.5037
 O    3.2370    9.5628   -7.5038
 O    3.2370    9.5628    1.0295
 O    3.2370   11.7703    3.2370
Fe    4.2666   -8.5333   -4.2666
Fe    4.2666   -8.5333    4.2666
Fe    4.2666   -4.2666   -8.5333
Fe    4.2666   -4.2666    0.0000
Fe    4.2666   -4.2666    8.5333
Fe    4.2666    0.0000   -4.2666
Fe    4.2666    0.0000    4.2666
Fe    4.2666    4.2666   -8.5333
Fe    4.2666    4.2666    0.0000
Fe    4.2666    4.2666    8.5333
Fe    4.2666    8.5333   -4.2666
Fe    4.2666    8.5333    4.2666
 O    5.2961   -9.5628   -7.5038
 O    5.2961   -9.5628    1.0295
 O    5.2961   -7.5038   -9.5628
 O    5.2961   -7.5038   -1.0296
 O    5.2961   -7.5038    7.5037
 O    5.2961   -5.2963   -3.2370
 O    5.2961   -5.2963    5.2961
 O    5.2961   -3.2370   -5.2963
 O    5.2961   -3.2370    3.2370
 O    5.2961   -1.0296   -7.5038
 O    5.2961   -1.0296    1.0295
 O    5.2961   -1.0296    9.5628
 O    5.2961    1.0295   -9.5628
 O    5.2961    1.0295   -1.0296
 O    5.2961    1.0295    7.5037
 O    5.2961    3.2370   -3.2370
 O    5.2961    3.2370    5.2961
 O    5.2961    5.2961   -5.2963
 O    5.2961    5.2961    3.2370
 O    5.2961    7.5037   -7.5038
 O    5.2961    7.5037    1.0295
 O    5.2961    7.5037    9.5628
 O    5.2961    9.5628   -1.0296
 O    5.2961    9.5628    7.5037
Fe    5.3333  -11.7333   -3.2000
Fe    5.3333   -9.6000   -1.0666
Fe    5.3333   -9.6000    7.4666
Fe    5.3333   -7.4666   -7.4666
Fe    5.3333   -7.4666    1.0666
Fe    5.3333   -7.4666    9.6000
Fe    5.3333   -5.3333   -5.3333
Fe    5.3333   -5.3333    3.2000
Fe    5.3333   -3.2000  -11.7333
Fe    5.3333   -3.2000   -3.2000
Fe    5.3333   -3.2000    5.3333
Fe    5.3333   -1.0666   -9.6000
Fe    5.3333   -1.0666   -1.0666
Fe    5.3333   -1.0666    7.4666
Fe    5.3333    1.0666   -7.4666
Fe    5.3333    1.0666    1.0666
Fe    5.3333    1.0666    9.6000
Fe    5.3333    3.2000   -5.3333
Fe    5.3333    3.2000    3.2000
Fe    5.3333    3.2000   11.7333
Fe    5.3333    5.3333   -3.2000
Fe    5.3333    5.3333    5.3333
Fe    5.3333    7.4666   -9.6000
Fe    5.3333    7.4666   -1.0666
Fe    5.3333    7.4666    7.4666
Fe    5.3333    9.6000   -7.4666
Fe    5.3333    9.6000    1.0666
Fe    5.3333   11.7333    3.2000
 O    5.3703  -11.6962   -1.1037
 O    5.3703   -9.6371   -3.1629
 O    5.3703   -9.6371    5.3703
 O    5.3703   -7.4296   -5.3704
 O    5.3703   -7.4296    3.1628
 O    5.3703   -5.3704   -7.4296
 O    5.3703   -5.3704    1.1037
 O    5.3703   -5.3704    9.6370
 O    5.3703   -3.1629   -9.6371
 O    5.3703   -3.1629   -1.1037
 O    5.3703   -3.1629    7.4295
 O    5.3703   -1.1037  -11.6962
 O    5.3703   -1.1037   -3.1629
 O    5.3703   -1.1037    5.3703
 O    5.3703    1.1037   -5.3704
 O    5.3703    1.1037    3.1628
 O    5.3703    1.1037   11.6962
 O    5.3703    3.1628   -7.4296
 O    5.3703    3.1628    1.1037
 O    5.3703    3.1628    9.6370
 O    5.3703    5.3703   -9.6371
 O    5.3703    5.3703   -1.1037
 O    5.3703    5.3703    7.4295
 O    5.3703    7.4295   -3.1629
 O    5.3703    7.4295    5.3703
 O    5.3703    9.6370   -5.3704
 O    5.3703    9.6370    3.1628
 O    5.3703   11.6962    1.1037
Fe    6.4000  -10.6666    2.1333
Fe    6.4000   -6.4000   -2.1333
Fe    6.4000   -6.4000    6.4000
Fe    6.4000   -2.1333   -6.4000
Fe    6.4000   -2.1333    2.1333
Fe    6.4000   -2.1333   10.6666
Fe    6.4000    2.1333  -10.6666
Fe    6.4000    2.1333   -2.1333
Fe    6.4000    2.1333    6.4000
Fe    6.4000    6.4000   -6.4000
Fe    6.4000    6.4000    2.1333
Fe    6.4000   10.6666   -2.1333
 O    7.4295   -9.6371   -1.1037
 O    7.4295   -7.4296   -7.4296
 O    7.4295   -7.4296    1.1037
 O    7.4295   -5.3704   -5.3704
 O    7.4295   -5.3704    3.1628
 O    7.4295   -3.1629   -3.1629
 O    7.4295   -3.1629    5.3703
 O    7.4295   -1.1037   -9.6371
 O    7.4295   -1.1037   -1.1037
 O    7.4295   -1.1037    7.4295
 O    7.4295    1.1037   -7.4296
 O    7.4295    1.1037    1.1037
 O    7.4295    1.1037    9.6370
 O    7.4295    3.1628   -5.3704
 O    7.4295    3.1628    3.1628
 O    7.4295    5.3703   -3.1629
 O    7.4295    5.3703    5.3703
 O    7.4295    7.4295   -1.1037
 O    7.4295    7.4295    7.4295
 O    7.4295    9.6370    1.1037
Fe    7.4666   -9.6000   -3.2000
Fe    7.4666   -9.6000    5.3333
Fe    7.4666   -7.4666   -5.3333
Fe    7.4666   -7.4666    3.2000
Fe    7.4666   -5.3333   -7.4666
Fe    7.4666   -5.3333    1.0666
Fe    7.4666   -5.3333    9.6000
Fe    7.4666   -3.2000   -9.6000
Fe    7.4666   -3.2000   -1.0666
Fe    7.4666   -3.2000    7.4666
Fe    7.4666   -1.0666   -3.2000
Fe    7.4666   -1.0666    5.3333
Fe    7.4666    1.0666   -5.3333
Fe    7.4666    1.0666    3.2000
Fe    7.4666    3.2000   -7.4666
Fe    7.4666    3.2000    1.0666
Fe    7.4666    3.2000    9.6000
Fe    7.4666    5.3333   -9.6000
Fe    7.4666    5.3333   -1.0666
Fe    7.4666    5.3333    7.4666
Fe    7.4666    7.4666   -3.2000
Fe    7.4666    7.4666    5.3333
Fe    7.4666    9.6000   -5.3333
Fe    7.4666    9.6000    3.2000
 O    7.5037   -9.5628   -5.2963
 O    7.5037   -9.5628    3.2370
 O    7.5037   -7.5038   -3.2370
 O    7.5037   -7.5038    5.2961
 O    7.5037   -5.2963   -9.5628
 O    7.5037   -5.2963   -1.0296
 O    7.5037   -5.2963    7.5037
 O    7.5037   -3.2370   -7.5038
 O    7.5037   -3.2370    1.0295
 O    7.5037   -3.2370    9.5628
 O    7.5037   -1.0296   -5.2963
 O    7.5037   -1.0296    3.2370
 O    7.5037    1.0295   -3.2370
 O    7.5037    1.0295    5.2961
 O    7.5037    3.2370   -9.5628
 O    7.5037    3.2370   -1.0296
 O    7.5037    3.2370    7.5037
 O    7.5037    5.2961   -7.5038
 O    7.5037    5.2961    1.0295
 O    7.5037    5.2961    9.5628
 O    7.5037    7.5037   -5.2963
 O    7.5037    7.5037    3.2370
 O    7.5037    9.5628   -3.2370
 O    7.5037    9.5628    5.2961
Fe    8.5333   -8.5333    0.0000
Fe    8.5333   -4.2666   -4.2666
Fe    8.5333   -4.2666    4.2666
Fe    8.5333    0.0000   -8.5333
Fe    8.5333    0.0000    0.0000
Fe    8.5333    0.0000    8.5333
Fe    8.5333    4.2666   -4.2666
Fe    8.5333    4.2666    4.2666
Fe    8.5333    8.5333    0.0000
 O    9.5628   -7.5038   -5.2963
 O    9.5628   -7.5038    3.2370
 O    9.5628   -5.2963   -7.5038
 O    9.5628   -5.2963    1.0295
 O    9.5628   -3.2370   -1.0296
 O    9.5628   -3.2370    7.5037
 O    9.5628   -1.0296   -3.2370
 O    9.5628   -1.0296    5.2961
 O    9.5628    1.0295   -5.2963
 O    9.5628    1.0295    3.2370
 O    9.5628    3.2370   -7.5038
 O    9.5628    3.2370    1.0295
 O    9.5628    5.2961   -1.0296
 O    9.5628    5.2961    7.5037
 O    9.5628    7.5037   -3.2370
 O    9.5628    7.5037    5.2961
Fe    9.6000   -7.4666   -3.2000
Fe    9.6000   -7.4666    5.3333
Fe    9.6000   -5.3333   -1.0666
Fe    9.6000   -5.3333    7.4666
Fe    9.6000   -3.2000   -7.4666
Fe    9.6000   -3.2000    1.0666
Fe    9.6000   -1.0666   -5.3333
Fe    9.6000   -1.0666    3.2000
Fe    9.6000    1.0666   -3.2000
Fe    9.6000    1.0666    5.3333
Fe    9.6000    3.2000   -1.0666
Fe    9.6000    3.2000    7.4666
Fe    9.6000    5.3333   -7.4666
Fe    9.6000    5.3333    1.0666
Fe    9.6000    7.4666   -5.3333
Fe    9.6000    7.4666    3.2000
 O    9.6370   -7.4296   -1.1037
 O    9.6370   -5.3704   -3.1629
 O    9.6370   -5.3704    5.3703
 O    9.6370   -3.1629   -5.3704
 O    9.6370   -3.1629    3.1628
 O    9.6370   -1.1037   -7.4296
 O    9.6370   -1.1037    1.1037
 O    9.6370    1.1037   -1.1037
 O    9.6370    1.1037    7.4295
 O    9.6370    3.1628   -3.1629
 O    9.6370    3.1628    5.3703
 O    9.6370    5.3703   -5.3704
 O    9.6370    5.3703    3.1628
 O    9.6370    7.4295    1.1037
Fe   10.6666   -6.4000    2.1333
Fe   10.6666   -2.1333   -2.1333
Fe   10.6666   -2.1333    6.4000
Fe   10.6666    2.1333   -6.4000
Fe   10.6666    2.1333    2.1333
Fe   10.6666    6.4000   -2.1333
 O   11.6962   -5.3704   -1.1037
 O   11.6962   -3.1629    1.1037
 O   11.6962   -1.1037   -5.3704
 O   11.6962   -1.1037    3.1628
 O   11.6962    1.1037   -3.1629
 O   11.6962    1.1037    5.3703
 O   11.6962    3.1628   -1.1037
 O   11.6962    5.3703    1.1037
Fe   11.7333   -5.3333   -3.2000
Fe   11.7333   -3.2000   -5.3333
Fe   11.7333   -3.2000    3.2000
Fe   11.7333   -1.0666    1.0666
Fe   11.7333    1.0666   -1.0666
Fe   11.7333    3.2000   -3.2000
Fe   11.7333    3.2000    5.3333
Fe   11.7333    5.3333    3.2000
 O   11.7703   -3.2370   -3.2370
 O   11.7703   -1.0296   -1.0296
 O   11.7703    1.0295    1.0295
 O   11.7703    3.2370    3.2370
